*SPEF "ieee 1481-1999"
*DESIGN "rng_chaos_top"
*DATE "11:11:11 Fri 11 11, 1111"
*VENDOR "OpenRCX"
*PROGRAM "Parallel Extraction"
*VERSION "1.0"
*DESIGN_FLOW "NAME_SCOPE LOCAL" "PIN_CAP NONE"
*DIVIDER /
*DELIMITER :
*BUS_DELIMITER []
*T_UNIT 1 NS
*C_UNIT 1 PF
*R_UNIT 1 OHM
*L_UNIT 1 HENRY

*NAME_MAP
*1 io_in[0]
*2 io_in[10]
*3 io_in[11]
*4 io_in[12]
*5 io_in[13]
*6 io_in[14]
*7 io_in[15]
*8 io_in[16]
*9 io_in[17]
*10 io_in[18]
*11 io_in[19]
*12 io_in[1]
*13 io_in[20]
*14 io_in[21]
*15 io_in[22]
*16 io_in[23]
*17 io_in[24]
*18 io_in[25]
*19 io_in[26]
*20 io_in[27]
*21 io_in[28]
*22 io_in[29]
*23 io_in[2]
*24 io_in[30]
*25 io_in[31]
*26 io_in[32]
*27 io_in[33]
*28 io_in[34]
*29 io_in[35]
*30 io_in[36]
*31 io_in[37]
*32 io_in[3]
*33 io_in[4]
*34 io_in[5]
*35 io_in[6]
*36 io_in[7]
*37 io_in[8]
*38 io_in[9]
*39 net204
*40 net214
*41 net215
*42 net216
*43 net217
*44 net218
*45 net219
*46 net220
*47 net221
*48 net222
*49 net223
*50 net205
*51 net224
*52 net225
*53 net226
*54 net227
*55 net228
*56 net229
*57 net230
*58 net231
*59 net232
*60 net233
*61 net206
*62 net234
*63 net235
*64 net236
*65 net237
*66 net238
*67 net239
*68 net240
*69 net203
*70 net207
*71 net208
*72 net209
*73 net210
*74 net211
*75 net212
*76 net213
*77 net132
*78 net142
*79 net143
*80 net144
*81 net145
*82 net146
*83 net147
*84 net148
*85 net149
*86 net150
*87 net151
*88 net133
*89 net152
*90 net153
*91 net154
*92 net155
*93 net156
*94 net157
*95 net158
*96 net159
*97 net160
*98 net161
*99 net134
*100 net162
*101 net163
*102 net164
*103 net165
*104 net166
*105 net167
*106 net168
*107 net169
*108 net135
*109 net136
*110 net137
*111 net138
*112 net139
*113 net140
*114 net141
*115 net129
*116 net130
*117 net131
*118 la_data_in[0]
*119 la_data_in[100]
*120 la_data_in[101]
*121 la_data_in[102]
*122 la_data_in[103]
*123 la_data_in[104]
*124 la_data_in[105]
*125 la_data_in[106]
*126 la_data_in[107]
*127 la_data_in[108]
*128 la_data_in[109]
*129 la_data_in[10]
*130 la_data_in[110]
*131 la_data_in[111]
*132 la_data_in[112]
*133 la_data_in[113]
*134 la_data_in[114]
*135 la_data_in[115]
*136 la_data_in[116]
*137 la_data_in[117]
*138 la_data_in[118]
*139 la_data_in[119]
*140 la_data_in[11]
*141 la_data_in[120]
*142 la_data_in[121]
*143 la_data_in[122]
*144 la_data_in[123]
*145 la_data_in[124]
*146 la_data_in[125]
*147 la_data_in[126]
*148 la_data_in[127]
*149 la_data_in[12]
*150 la_data_in[13]
*151 la_data_in[14]
*152 la_data_in[15]
*153 la_data_in[16]
*154 la_data_in[17]
*155 la_data_in[18]
*156 la_data_in[19]
*157 la_data_in[1]
*158 la_data_in[20]
*159 la_data_in[21]
*160 la_data_in[22]
*161 la_data_in[23]
*162 la_data_in[24]
*163 la_data_in[25]
*164 la_data_in[26]
*165 la_data_in[27]
*166 la_data_in[28]
*167 la_data_in[29]
*168 la_data_in[2]
*169 la_data_in[30]
*170 la_data_in[31]
*171 la_data_in[32]
*172 la_data_in[33]
*173 la_data_in[34]
*174 la_data_in[35]
*175 la_data_in[36]
*176 la_data_in[37]
*177 la_data_in[38]
*178 la_data_in[39]
*179 la_data_in[3]
*180 la_data_in[40]
*181 la_data_in[41]
*182 la_data_in[42]
*183 la_data_in[43]
*184 la_data_in[44]
*185 la_data_in[45]
*186 la_data_in[46]
*187 la_data_in[47]
*188 la_data_in[48]
*189 la_data_in[49]
*190 la_data_in[4]
*191 la_data_in[50]
*192 la_data_in[51]
*193 la_data_in[52]
*194 la_data_in[53]
*195 la_data_in[54]
*196 la_data_in[55]
*197 la_data_in[56]
*198 la_data_in[57]
*199 la_data_in[58]
*200 la_data_in[59]
*201 la_data_in[5]
*202 la_data_in[60]
*203 la_data_in[61]
*204 la_data_in[62]
*205 la_data_in[63]
*206 la_data_in[64]
*207 la_data_in[65]
*208 la_data_in[66]
*209 la_data_in[67]
*210 la_data_in[68]
*211 la_data_in[69]
*212 la_data_in[6]
*213 la_data_in[70]
*214 la_data_in[71]
*215 la_data_in[72]
*216 la_data_in[73]
*217 la_data_in[74]
*218 la_data_in[75]
*219 la_data_in[76]
*220 la_data_in[77]
*221 la_data_in[78]
*222 la_data_in[79]
*223 la_data_in[7]
*224 la_data_in[80]
*225 la_data_in[81]
*226 la_data_in[82]
*227 la_data_in[83]
*228 la_data_in[84]
*229 la_data_in[85]
*230 la_data_in[86]
*231 la_data_in[87]
*232 la_data_in[88]
*233 la_data_in[89]
*234 la_data_in[8]
*235 la_data_in[90]
*236 la_data_in[91]
*237 la_data_in[92]
*238 la_data_in[93]
*239 la_data_in[94]
*240 la_data_in[95]
*241 la_data_in[96]
*242 la_data_in[97]
*243 la_data_in[98]
*244 la_data_in[99]
*245 la_data_in[9]
*246 net1
*247 net101
*248 net102
*249 net103
*250 net104
*251 net105
*252 net106
*253 net107
*254 net108
*255 net109
*256 net110
*257 net11
*258 net111
*259 net112
*260 net113
*261 net114
*262 net115
*263 net116
*264 net117
*265 net118
*266 net119
*267 net120
*268 net12
*269 net121
*270 net122
*271 net123
*272 net124
*273 net125
*274 net126
*275 net127
*276 net128
*277 net13
*278 net14
*279 net15
*280 net16
*281 net17
*282 net18
*283 net19
*284 net20
*285 net2
*286 net21
*287 net22
*288 net23
*289 net24
*290 net25
*291 net26
*292 net27
*293 net28
*294 net29
*295 net30
*296 net3
*297 net31
*298 net32
*299 net33
*300 net34
*301 net35
*302 net36
*303 net37
*304 net38
*305 net39
*306 net40
*307 net4
*308 net41
*309 net42
*310 net43
*311 net44
*312 net45
*313 net46
*314 net47
*315 net48
*316 net49
*317 net50
*318 net5
*319 net51
*320 net52
*321 net53
*322 net54
*323 net55
*324 net56
*325 net57
*326 net58
*327 net59
*328 net60
*329 net6
*330 net61
*331 net62
*332 net63
*333 net64
*334 net65
*335 net66
*336 net67
*337 net68
*338 net69
*339 net70
*340 net7
*341 net71
*342 net72
*343 net73
*344 net74
*345 net75
*346 net76
*347 net77
*348 net78
*349 net79
*350 net80
*351 net8
*352 net81
*353 net82
*354 net83
*355 net84
*356 net85
*357 net86
*358 net87
*359 net88
*360 net89
*361 net90
*362 net9
*363 net91
*364 net92
*365 net93
*366 net94
*367 net95
*368 net96
*369 net97
*370 net98
*371 net99
*372 net100
*373 net10
*374 la_oenb[0]
*375 la_oenb[100]
*376 la_oenb[101]
*377 la_oenb[102]
*378 la_oenb[103]
*379 la_oenb[104]
*380 la_oenb[105]
*381 la_oenb[106]
*382 la_oenb[107]
*383 la_oenb[108]
*384 la_oenb[109]
*385 la_oenb[10]
*386 la_oenb[110]
*387 la_oenb[111]
*388 la_oenb[112]
*389 la_oenb[113]
*390 la_oenb[114]
*391 la_oenb[115]
*392 la_oenb[116]
*393 la_oenb[117]
*394 la_oenb[118]
*395 la_oenb[119]
*396 la_oenb[11]
*397 la_oenb[120]
*398 la_oenb[121]
*399 la_oenb[122]
*400 la_oenb[123]
*401 la_oenb[124]
*402 la_oenb[125]
*403 la_oenb[126]
*404 la_oenb[127]
*405 la_oenb[12]
*406 la_oenb[13]
*407 la_oenb[14]
*408 la_oenb[15]
*409 la_oenb[16]
*410 la_oenb[17]
*411 la_oenb[18]
*412 la_oenb[19]
*413 la_oenb[1]
*414 la_oenb[20]
*415 la_oenb[21]
*416 la_oenb[22]
*417 la_oenb[23]
*418 la_oenb[24]
*419 la_oenb[25]
*420 la_oenb[26]
*421 la_oenb[27]
*422 la_oenb[28]
*423 la_oenb[29]
*424 la_oenb[2]
*425 la_oenb[30]
*426 la_oenb[31]
*427 la_oenb[32]
*428 la_oenb[33]
*429 la_oenb[34]
*430 la_oenb[35]
*431 la_oenb[36]
*432 la_oenb[37]
*433 la_oenb[38]
*434 la_oenb[39]
*435 la_oenb[3]
*436 la_oenb[40]
*437 la_oenb[41]
*438 la_oenb[42]
*439 la_oenb[43]
*440 la_oenb[44]
*441 la_oenb[45]
*442 la_oenb[46]
*443 la_oenb[47]
*444 la_oenb[48]
*445 la_oenb[49]
*446 la_oenb[4]
*447 la_oenb[50]
*448 la_oenb[51]
*449 la_oenb[52]
*450 la_oenb[53]
*451 la_oenb[54]
*452 la_oenb[55]
*453 la_oenb[56]
*454 la_oenb[57]
*455 la_oenb[58]
*456 la_oenb[59]
*457 la_oenb[5]
*458 la_oenb[60]
*459 la_oenb[61]
*460 la_oenb[62]
*461 la_oenb[63]
*462 la_oenb[64]
*463 la_oenb[65]
*464 la_oenb[66]
*465 la_oenb[67]
*466 la_oenb[68]
*467 la_oenb[69]
*468 la_oenb[6]
*469 la_oenb[70]
*470 la_oenb[71]
*471 la_oenb[72]
*472 la_oenb[73]
*473 la_oenb[74]
*474 la_oenb[75]
*475 la_oenb[76]
*476 la_oenb[77]
*477 la_oenb[78]
*478 la_oenb[79]
*479 la_oenb[7]
*480 la_oenb[80]
*481 la_oenb[81]
*482 la_oenb[82]
*483 la_oenb[83]
*484 la_oenb[84]
*485 la_oenb[85]
*486 la_oenb[86]
*487 la_oenb[87]
*488 la_oenb[88]
*489 la_oenb[89]
*490 la_oenb[8]
*491 la_oenb[90]
*492 la_oenb[91]
*493 la_oenb[92]
*494 la_oenb[93]
*495 la_oenb[94]
*496 la_oenb[95]
*497 la_oenb[96]
*498 la_oenb[97]
*499 la_oenb[98]
*500 la_oenb[99]
*501 la_oenb[9]
*504 wb_clk_i
*505 wb_rst_i
*506 net170
*507 wbs_adr_i[0]
*508 wbs_adr_i[10]
*509 wbs_adr_i[11]
*510 wbs_adr_i[12]
*511 wbs_adr_i[13]
*512 wbs_adr_i[14]
*513 wbs_adr_i[15]
*514 wbs_adr_i[16]
*515 wbs_adr_i[17]
*516 wbs_adr_i[18]
*517 wbs_adr_i[19]
*518 wbs_adr_i[1]
*519 wbs_adr_i[20]
*520 wbs_adr_i[21]
*521 wbs_adr_i[22]
*522 wbs_adr_i[23]
*523 wbs_adr_i[24]
*524 wbs_adr_i[25]
*525 wbs_adr_i[26]
*526 wbs_adr_i[27]
*527 wbs_adr_i[28]
*528 wbs_adr_i[29]
*529 wbs_adr_i[2]
*530 wbs_adr_i[30]
*531 wbs_adr_i[31]
*532 wbs_adr_i[3]
*533 wbs_adr_i[4]
*534 wbs_adr_i[5]
*535 wbs_adr_i[6]
*536 wbs_adr_i[7]
*537 wbs_adr_i[8]
*538 wbs_adr_i[9]
*539 wbs_cyc_i
*540 wbs_dat_i[0]
*541 wbs_dat_i[10]
*542 wbs_dat_i[11]
*543 wbs_dat_i[12]
*544 wbs_dat_i[13]
*545 wbs_dat_i[14]
*546 wbs_dat_i[15]
*547 wbs_dat_i[16]
*548 wbs_dat_i[17]
*549 wbs_dat_i[18]
*550 wbs_dat_i[19]
*551 wbs_dat_i[1]
*552 wbs_dat_i[20]
*553 wbs_dat_i[21]
*554 wbs_dat_i[22]
*555 wbs_dat_i[23]
*556 wbs_dat_i[24]
*557 wbs_dat_i[25]
*558 wbs_dat_i[26]
*559 wbs_dat_i[27]
*560 wbs_dat_i[28]
*561 wbs_dat_i[29]
*562 wbs_dat_i[2]
*563 wbs_dat_i[30]
*564 wbs_dat_i[31]
*565 wbs_dat_i[3]
*566 wbs_dat_i[4]
*567 wbs_dat_i[5]
*568 wbs_dat_i[6]
*569 wbs_dat_i[7]
*570 wbs_dat_i[8]
*571 wbs_dat_i[9]
*572 net171
*573 net181
*574 net182
*575 net183
*576 net184
*577 net185
*578 net186
*579 net187
*580 net188
*581 net189
*582 net190
*583 net172
*584 net191
*585 net192
*586 net193
*587 net194
*588 net195
*589 net196
*590 net197
*591 net198
*592 net199
*593 net200
*594 net173
*595 net201
*596 net202
*597 net174
*598 net175
*599 net176
*600 net177
*601 net178
*602 net179
*603 net180
*604 wbs_sel_i[0]
*605 wbs_sel_i[1]
*606 wbs_sel_i[2]
*607 wbs_sel_i[3]
*608 wbs_stb_i
*609 wbs_we_i
*610 FILLER_0_100
*611 FILLER_0_1001
*612 FILLER_0_1007
*613 FILLER_0_1009
*614 FILLER_0_1013
*615 FILLER_0_1021
*616 FILLER_0_1025
*617 FILLER_0_1033
*618 FILLER_0_1040
*619 FILLER_0_1044
*620 FILLER_0_1048
*621 FILLER_0_1056
*622 FILLER_0_1060
*623 FILLER_0_1065
*624 FILLER_0_1072
*625 FILLER_0_1080
*626 FILLER_0_1084
*627 FILLER_0_1096
*628 FILLER_0_1104
*629 FILLER_0_1108
*630 FILLER_0_1124
*631 FILLER_0_1128
*632 FILLER_0_1132
*633 FILLER_0_1140
*634 FILLER_0_1144
*635 FILLER_0_1149
*636 FILLER_0_1156
*637 FILLER_0_116
*638 FILLER_0_1167
*639 FILLER_0_1175
*640 FILLER_0_1180
*641 FILLER_0_1191
*642 FILLER_0_1203
*643 FILLER_0_1208
*644 FILLER_0_1215
*645 FILLER_0_1223
*646 FILLER_0_1227
*647 FILLER_0_123
*648 FILLER_0_1231
*649 FILLER_0_1233
*650 FILLER_0_1239
*651 FILLER_0_1247
*652 FILLER_0_1251
*653 FILLER_0_1259
*654 FILLER_0_1264
*655 FILLER_0_1275
*656 FILLER_0_1287
*657 FILLER_0_1292
*658 FILLER_0_1299
*659 FILLER_0_131
*660 FILLER_0_1310
*661 FILLER_0_1317
*662 FILLER_0_1322
*663 FILLER_0_1330
*664 FILLER_0_1334
*665 FILLER_0_1342
*666 FILLER_0_1348
*667 FILLER_0_135
*668 FILLER_0_1354
*669 FILLER_0_1358
*670 FILLER_0_1370
*671 FILLER_0_1376
*672 FILLER_0_1383
*673 FILLER_0_139
*674 FILLER_0_1394
*675 FILLER_0_1401
*676 FILLER_0_1406
*677 FILLER_0_141
*678 FILLER_0_1414
*679 FILLER_0_1418
*680 FILLER_0_1426
*681 FILLER_0_1432
*682 FILLER_0_1441
*683 FILLER_0_1453
*684 FILLER_0_1460
*685 FILLER_0_1467
*686 FILLER_0_147
*687 FILLER_0_1473
*688 FILLER_0_1477
*689 FILLER_0_1483
*690 FILLER_0_1485
*691 FILLER_0_1489
*692 FILLER_0_1497
*693 FILLER_0_1501
*694 FILLER_0_1509
*695 FILLER_0_1516
*696 FILLER_0_1525
*697 FILLER_0_1537
*698 FILLER_0_1544
*699 FILLER_0_155
*700 FILLER_0_1551
*701 FILLER_0_1560
*702 FILLER_0_1572
*703 FILLER_0_1580
*704 FILLER_0_1584
*705 FILLER_0_159
*706 FILLER_0_1600
*707 FILLER_0_1604
*708 FILLER_0_1608
*709 FILLER_0_1616
*710 FILLER_0_1620
*711 FILLER_0_1625
*712 FILLER_0_1632
*713 FILLER_0_1640
*714 FILLER_0_1644
*715 FILLER_0_1656
*716 FILLER_0_1664
*717 FILLER_0_1668
*718 FILLER_0_167
*719 FILLER_0_1684
*720 FILLER_0_1691
*721 FILLER_0_1699
*722 FILLER_0_1703
*723 FILLER_0_1707
*724 FILLER_0_1709
*725 FILLER_0_1715
*726 FILLER_0_172
*727 FILLER_0_1723
*728 FILLER_0_1727
*729 FILLER_0_1735
*730 FILLER_0_1740
*731 FILLER_0_1751
*732 FILLER_0_1763
*733 FILLER_0_1768
*734 FILLER_0_1775
*735 FILLER_0_1783
*736 FILLER_0_1787
*737 FILLER_0_1791
*738 FILLER_0_1793
*739 FILLER_0_1799
*740 FILLER_0_18
*741 FILLER_0_1807
*742 FILLER_0_1811
*743 FILLER_0_1819
*744 FILLER_0_1824
*745 FILLER_0_183
*746 FILLER_0_1830
*747 FILLER_0_1834
*748 FILLER_0_1846
*749 FILLER_0_1852
*750 FILLER_0_1859
*751 FILLER_0_1870
*752 FILLER_0_1877
*753 FILLER_0_1882
*754 FILLER_0_1890
*755 FILLER_0_1894
*756 FILLER_0_1902
*757 FILLER_0_1908
*758 FILLER_0_1914
*759 FILLER_0_1918
*760 FILLER_0_1925
*761 FILLER_0_195
*762 FILLER_0_200
*763 FILLER_0_207
*764 FILLER_0_215
*765 FILLER_0_219
*766 FILLER_0_223
*767 FILLER_0_225
*768 FILLER_0_231
*769 FILLER_0_239
*770 FILLER_0_24
*771 FILLER_0_243
*772 FILLER_0_251
*773 FILLER_0_256
*774 FILLER_0_262
*775 FILLER_0_266
*776 FILLER_0_278
*777 FILLER_0_284
*778 FILLER_0_29
*779 FILLER_0_291
*780 FILLER_0_302
*781 FILLER_0_309
*782 FILLER_0_314
*783 FILLER_0_322
*784 FILLER_0_326
*785 FILLER_0_334
*786 FILLER_0_340
*787 FILLER_0_346
*788 FILLER_0_350
*789 FILLER_0_362
*790 FILLER_0_368
*791 FILLER_0_375
*792 FILLER_0_381
*793 FILLER_0_385
*794 FILLER_0_391
*795 FILLER_0_393
*796 FILLER_0_397
*797 FILLER_0_40
*798 FILLER_0_405
*799 FILLER_0_409
*800 FILLER_0_416
*801 FILLER_0_421
*802 FILLER_0_425
*803 FILLER_0_429
*804 FILLER_0_437
*805 FILLER_0_441
*806 FILLER_0_447
*807 FILLER_0_449
*808 FILLER_0_453
*809 FILLER_0_461
*810 FILLER_0_465
*811 FILLER_0_473
*812 FILLER_0_480
*813 FILLER_0_489
*814 FILLER_0_501
*815 FILLER_0_508
*816 FILLER_0_515
*817 FILLER_0_52
*818 FILLER_0_524
*819 FILLER_0_536
*820 FILLER_0_544
*821 FILLER_0_548
*822 FILLER_0_564
*823 FILLER_0_568
*824 FILLER_0_572
*825 FILLER_0_580
*826 FILLER_0_584
*827 FILLER_0_589
*828 FILLER_0_596
*829 FILLER_0_6
*830 FILLER_0_60
*831 FILLER_0_604
*832 FILLER_0_608
*833 FILLER_0_620
*834 FILLER_0_628
*835 FILLER_0_632
*836 FILLER_0_648
*837 FILLER_0_655
*838 FILLER_0_663
*839 FILLER_0_667
*840 FILLER_0_671
*841 FILLER_0_673
*842 FILLER_0_679
*843 FILLER_0_68
*844 FILLER_0_687
*845 FILLER_0_691
*846 FILLER_0_699
*847 FILLER_0_704
*848 FILLER_0_715
*849 FILLER_0_72
*850 FILLER_0_727
*851 FILLER_0_732
*852 FILLER_0_739
*853 FILLER_0_747
*854 FILLER_0_751
*855 FILLER_0_755
*856 FILLER_0_757
*857 FILLER_0_763
*858 FILLER_0_771
*859 FILLER_0_775
*860 FILLER_0_783
*861 FILLER_0_788
*862 FILLER_0_794
*863 FILLER_0_798
*864 FILLER_0_810
*865 FILLER_0_816
*866 FILLER_0_823
*867 FILLER_0_834
*868 FILLER_0_841
*869 FILLER_0_846
*870 FILLER_0_854
*871 FILLER_0_858
*872 FILLER_0_866
*873 FILLER_0_872
*874 FILLER_0_878
*875 FILLER_0_88
*876 FILLER_0_882
*877 FILLER_0_894
*878 FILLER_0_900
*879 FILLER_0_907
*880 FILLER_0_913
*881 FILLER_0_917
*882 FILLER_0_923
*883 FILLER_0_925
*884 FILLER_0_929
*885 FILLER_0_937
*886 FILLER_0_941
*887 FILLER_0_949
*888 FILLER_0_956
*889 FILLER_0_96
*890 FILLER_0_965
*891 FILLER_0_977
*892 FILLER_0_984
*893 FILLER_0_991
*894 FILLER_0_997
*895 FILLER_100_1005
*896 FILLER_100_1017
*897 FILLER_100_1029
*898 FILLER_100_1035
*899 FILLER_100_1037
*900 FILLER_100_1049
*901 FILLER_100_1061
*902 FILLER_100_1073
*903 FILLER_100_1085
*904 FILLER_100_109
*905 FILLER_100_1091
*906 FILLER_100_1093
*907 FILLER_100_1105
*908 FILLER_100_1117
*909 FILLER_100_1129
*910 FILLER_100_1141
*911 FILLER_100_1147
*912 FILLER_100_1149
*913 FILLER_100_1161
*914 FILLER_100_1173
*915 FILLER_100_1185
*916 FILLER_100_1197
*917 FILLER_100_1203
*918 FILLER_100_1205
*919 FILLER_100_121
*920 FILLER_100_1217
*921 FILLER_100_1229
*922 FILLER_100_1241
*923 FILLER_100_1253
*924 FILLER_100_1259
*925 FILLER_100_1261
*926 FILLER_100_1273
*927 FILLER_100_1285
*928 FILLER_100_1297
*929 FILLER_100_1309
*930 FILLER_100_1315
*931 FILLER_100_1317
*932 FILLER_100_1329
*933 FILLER_100_133
*934 FILLER_100_1341
*935 FILLER_100_1353
*936 FILLER_100_1365
*937 FILLER_100_1371
*938 FILLER_100_1373
*939 FILLER_100_1385
*940 FILLER_100_139
*941 FILLER_100_1397
*942 FILLER_100_1409
*943 FILLER_100_141
*944 FILLER_100_1421
*945 FILLER_100_1427
*946 FILLER_100_1429
*947 FILLER_100_1441
*948 FILLER_100_1453
*949 FILLER_100_1465
*950 FILLER_100_1477
*951 FILLER_100_1483
*952 FILLER_100_1485
*953 FILLER_100_1497
*954 FILLER_100_15
*955 FILLER_100_1509
*956 FILLER_100_1521
*957 FILLER_100_153
*958 FILLER_100_1533
*959 FILLER_100_1539
*960 FILLER_100_1541
*961 FILLER_100_1553
*962 FILLER_100_1565
*963 FILLER_100_1577
*964 FILLER_100_1589
*965 FILLER_100_1595
*966 FILLER_100_1597
*967 FILLER_100_1609
*968 FILLER_100_1621
*969 FILLER_100_1633
*970 FILLER_100_1645
*971 FILLER_100_165
*972 FILLER_100_1651
*973 FILLER_100_1653
*974 FILLER_100_1665
*975 FILLER_100_1677
*976 FILLER_100_1689
*977 FILLER_100_1701
*978 FILLER_100_1707
*979 FILLER_100_1709
*980 FILLER_100_1721
*981 FILLER_100_1733
*982 FILLER_100_1745
*983 FILLER_100_1757
*984 FILLER_100_1763
*985 FILLER_100_1765
*986 FILLER_100_177
*987 FILLER_100_1777
*988 FILLER_100_1789
*989 FILLER_100_1801
*990 FILLER_100_1813
*991 FILLER_100_1819
*992 FILLER_100_1821
*993 FILLER_100_1833
*994 FILLER_100_1845
*995 FILLER_100_1857
*996 FILLER_100_1869
*997 FILLER_100_1875
*998 FILLER_100_1877
*999 FILLER_100_1889
*1000 FILLER_100_189
*1001 FILLER_100_1901
*1002 FILLER_100_1913
*1003 FILLER_100_1925
*1004 FILLER_100_195
*1005 FILLER_100_197
*1006 FILLER_100_209
*1007 FILLER_100_221
*1008 FILLER_100_233
*1009 FILLER_100_245
*1010 FILLER_100_251
*1011 FILLER_100_253
*1012 FILLER_100_265
*1013 FILLER_100_27
*1014 FILLER_100_277
*1015 FILLER_100_289
*1016 FILLER_100_29
*1017 FILLER_100_3
*1018 FILLER_100_301
*1019 FILLER_100_307
*1020 FILLER_100_309
*1021 FILLER_100_321
*1022 FILLER_100_333
*1023 FILLER_100_345
*1024 FILLER_100_357
*1025 FILLER_100_363
*1026 FILLER_100_365
*1027 FILLER_100_377
*1028 FILLER_100_389
*1029 FILLER_100_401
*1030 FILLER_100_41
*1031 FILLER_100_413
*1032 FILLER_100_419
*1033 FILLER_100_421
*1034 FILLER_100_433
*1035 FILLER_100_445
*1036 FILLER_100_457
*1037 FILLER_100_469
*1038 FILLER_100_475
*1039 FILLER_100_477
*1040 FILLER_100_489
*1041 FILLER_100_501
*1042 FILLER_100_513
*1043 FILLER_100_525
*1044 FILLER_100_53
*1045 FILLER_100_531
*1046 FILLER_100_533
*1047 FILLER_100_545
*1048 FILLER_100_557
*1049 FILLER_100_569
*1050 FILLER_100_581
*1051 FILLER_100_587
*1052 FILLER_100_589
*1053 FILLER_100_601
*1054 FILLER_100_613
*1055 FILLER_100_625
*1056 FILLER_100_637
*1057 FILLER_100_643
*1058 FILLER_100_645
*1059 FILLER_100_65
*1060 FILLER_100_657
*1061 FILLER_100_669
*1062 FILLER_100_681
*1063 FILLER_100_693
*1064 FILLER_100_699
*1065 FILLER_100_701
*1066 FILLER_100_713
*1067 FILLER_100_725
*1068 FILLER_100_737
*1069 FILLER_100_749
*1070 FILLER_100_755
*1071 FILLER_100_757
*1072 FILLER_100_769
*1073 FILLER_100_77
*1074 FILLER_100_781
*1075 FILLER_100_793
*1076 FILLER_100_805
*1077 FILLER_100_811
*1078 FILLER_100_813
*1079 FILLER_100_825
*1080 FILLER_100_83
*1081 FILLER_100_837
*1082 FILLER_100_849
*1083 FILLER_100_85
*1084 FILLER_100_861
*1085 FILLER_100_867
*1086 FILLER_100_869
*1087 FILLER_100_881
*1088 FILLER_100_893
*1089 FILLER_100_905
*1090 FILLER_100_917
*1091 FILLER_100_923
*1092 FILLER_100_925
*1093 FILLER_100_937
*1094 FILLER_100_949
*1095 FILLER_100_961
*1096 FILLER_100_97
*1097 FILLER_100_973
*1098 FILLER_100_979
*1099 FILLER_100_981
*1100 FILLER_100_993
*1101 FILLER_101_1001
*1102 FILLER_101_1007
*1103 FILLER_101_1009
*1104 FILLER_101_1021
*1105 FILLER_101_1033
*1106 FILLER_101_1045
*1107 FILLER_101_105
*1108 FILLER_101_1057
*1109 FILLER_101_1063
*1110 FILLER_101_1065
*1111 FILLER_101_1077
*1112 FILLER_101_1089
*1113 FILLER_101_1101
*1114 FILLER_101_111
*1115 FILLER_101_1113
*1116 FILLER_101_1119
*1117 FILLER_101_1121
*1118 FILLER_101_113
*1119 FILLER_101_1133
*1120 FILLER_101_1145
*1121 FILLER_101_1157
*1122 FILLER_101_1169
*1123 FILLER_101_1175
*1124 FILLER_101_1177
*1125 FILLER_101_1189
*1126 FILLER_101_1201
*1127 FILLER_101_1213
*1128 FILLER_101_1225
*1129 FILLER_101_1231
*1130 FILLER_101_1233
*1131 FILLER_101_1245
*1132 FILLER_101_125
*1133 FILLER_101_1257
*1134 FILLER_101_1269
*1135 FILLER_101_1281
*1136 FILLER_101_1287
*1137 FILLER_101_1289
*1138 FILLER_101_1301
*1139 FILLER_101_1313
*1140 FILLER_101_1325
*1141 FILLER_101_1337
*1142 FILLER_101_1343
*1143 FILLER_101_1345
*1144 FILLER_101_1357
*1145 FILLER_101_1369
*1146 FILLER_101_137
*1147 FILLER_101_1381
*1148 FILLER_101_1393
*1149 FILLER_101_1399
*1150 FILLER_101_1401
*1151 FILLER_101_1413
*1152 FILLER_101_1425
*1153 FILLER_101_1437
*1154 FILLER_101_1449
*1155 FILLER_101_1455
*1156 FILLER_101_1457
*1157 FILLER_101_1469
*1158 FILLER_101_1481
*1159 FILLER_101_149
*1160 FILLER_101_1493
*1161 FILLER_101_15
*1162 FILLER_101_1505
*1163 FILLER_101_1511
*1164 FILLER_101_1513
*1165 FILLER_101_1525
*1166 FILLER_101_1537
*1167 FILLER_101_1549
*1168 FILLER_101_1561
*1169 FILLER_101_1567
*1170 FILLER_101_1569
*1171 FILLER_101_1581
*1172 FILLER_101_1593
*1173 FILLER_101_1605
*1174 FILLER_101_161
*1175 FILLER_101_1617
*1176 FILLER_101_1623
*1177 FILLER_101_1625
*1178 FILLER_101_1637
*1179 FILLER_101_1649
*1180 FILLER_101_1661
*1181 FILLER_101_167
*1182 FILLER_101_1673
*1183 FILLER_101_1679
*1184 FILLER_101_1681
*1185 FILLER_101_169
*1186 FILLER_101_1693
*1187 FILLER_101_1705
*1188 FILLER_101_1717
*1189 FILLER_101_1729
*1190 FILLER_101_1735
*1191 FILLER_101_1737
*1192 FILLER_101_1749
*1193 FILLER_101_1761
*1194 FILLER_101_1773
*1195 FILLER_101_1785
*1196 FILLER_101_1791
*1197 FILLER_101_1793
*1198 FILLER_101_1805
*1199 FILLER_101_181
*1200 FILLER_101_1817
*1201 FILLER_101_1829
*1202 FILLER_101_1841
*1203 FILLER_101_1847
*1204 FILLER_101_1849
*1205 FILLER_101_1861
*1206 FILLER_101_1873
*1207 FILLER_101_1885
*1208 FILLER_101_1897
*1209 FILLER_101_1903
*1210 FILLER_101_1905
*1211 FILLER_101_1917
*1212 FILLER_101_193
*1213 FILLER_101_205
*1214 FILLER_101_217
*1215 FILLER_101_223
*1216 FILLER_101_225
*1217 FILLER_101_237
*1218 FILLER_101_249
*1219 FILLER_101_261
*1220 FILLER_101_27
*1221 FILLER_101_273
*1222 FILLER_101_279
*1223 FILLER_101_281
*1224 FILLER_101_293
*1225 FILLER_101_3
*1226 FILLER_101_305
*1227 FILLER_101_317
*1228 FILLER_101_329
*1229 FILLER_101_335
*1230 FILLER_101_337
*1231 FILLER_101_349
*1232 FILLER_101_361
*1233 FILLER_101_373
*1234 FILLER_101_385
*1235 FILLER_101_39
*1236 FILLER_101_391
*1237 FILLER_101_393
*1238 FILLER_101_405
*1239 FILLER_101_417
*1240 FILLER_101_429
*1241 FILLER_101_441
*1242 FILLER_101_447
*1243 FILLER_101_449
*1244 FILLER_101_461
*1245 FILLER_101_473
*1246 FILLER_101_485
*1247 FILLER_101_497
*1248 FILLER_101_503
*1249 FILLER_101_505
*1250 FILLER_101_51
*1251 FILLER_101_517
*1252 FILLER_101_529
*1253 FILLER_101_541
*1254 FILLER_101_55
*1255 FILLER_101_553
*1256 FILLER_101_559
*1257 FILLER_101_561
*1258 FILLER_101_57
*1259 FILLER_101_573
*1260 FILLER_101_585
*1261 FILLER_101_597
*1262 FILLER_101_609
*1263 FILLER_101_615
*1264 FILLER_101_617
*1265 FILLER_101_629
*1266 FILLER_101_641
*1267 FILLER_101_653
*1268 FILLER_101_665
*1269 FILLER_101_671
*1270 FILLER_101_673
*1271 FILLER_101_685
*1272 FILLER_101_69
*1273 FILLER_101_697
*1274 FILLER_101_709
*1275 FILLER_101_721
*1276 FILLER_101_727
*1277 FILLER_101_729
*1278 FILLER_101_741
*1279 FILLER_101_753
*1280 FILLER_101_765
*1281 FILLER_101_777
*1282 FILLER_101_783
*1283 FILLER_101_785
*1284 FILLER_101_797
*1285 FILLER_101_809
*1286 FILLER_101_81
*1287 FILLER_101_821
*1288 FILLER_101_833
*1289 FILLER_101_839
*1290 FILLER_101_841
*1291 FILLER_101_853
*1292 FILLER_101_865
*1293 FILLER_101_877
*1294 FILLER_101_889
*1295 FILLER_101_895
*1296 FILLER_101_897
*1297 FILLER_101_909
*1298 FILLER_101_921
*1299 FILLER_101_93
*1300 FILLER_101_933
*1301 FILLER_101_945
*1302 FILLER_101_951
*1303 FILLER_101_953
*1304 FILLER_101_965
*1305 FILLER_101_977
*1306 FILLER_101_989
*1307 FILLER_102_1005
*1308 FILLER_102_1017
*1309 FILLER_102_1029
*1310 FILLER_102_1035
*1311 FILLER_102_1037
*1312 FILLER_102_1049
*1313 FILLER_102_1061
*1314 FILLER_102_1073
*1315 FILLER_102_1085
*1316 FILLER_102_109
*1317 FILLER_102_1091
*1318 FILLER_102_1093
*1319 FILLER_102_1105
*1320 FILLER_102_1117
*1321 FILLER_102_1129
*1322 FILLER_102_1141
*1323 FILLER_102_1147
*1324 FILLER_102_1149
*1325 FILLER_102_1161
*1326 FILLER_102_1173
*1327 FILLER_102_1185
*1328 FILLER_102_1197
*1329 FILLER_102_1203
*1330 FILLER_102_1205
*1331 FILLER_102_121
*1332 FILLER_102_1217
*1333 FILLER_102_1229
*1334 FILLER_102_1241
*1335 FILLER_102_1253
*1336 FILLER_102_1259
*1337 FILLER_102_1261
*1338 FILLER_102_1273
*1339 FILLER_102_1285
*1340 FILLER_102_1297
*1341 FILLER_102_1309
*1342 FILLER_102_1315
*1343 FILLER_102_1317
*1344 FILLER_102_1329
*1345 FILLER_102_133
*1346 FILLER_102_1341
*1347 FILLER_102_1353
*1348 FILLER_102_1365
*1349 FILLER_102_1371
*1350 FILLER_102_1373
*1351 FILLER_102_1385
*1352 FILLER_102_139
*1353 FILLER_102_1397
*1354 FILLER_102_1409
*1355 FILLER_102_141
*1356 FILLER_102_1421
*1357 FILLER_102_1427
*1358 FILLER_102_1429
*1359 FILLER_102_1441
*1360 FILLER_102_1453
*1361 FILLER_102_1465
*1362 FILLER_102_1477
*1363 FILLER_102_1483
*1364 FILLER_102_1485
*1365 FILLER_102_1497
*1366 FILLER_102_15
*1367 FILLER_102_1509
*1368 FILLER_102_1521
*1369 FILLER_102_153
*1370 FILLER_102_1533
*1371 FILLER_102_1539
*1372 FILLER_102_1541
*1373 FILLER_102_1553
*1374 FILLER_102_1565
*1375 FILLER_102_1577
*1376 FILLER_102_1589
*1377 FILLER_102_1595
*1378 FILLER_102_1597
*1379 FILLER_102_1609
*1380 FILLER_102_1621
*1381 FILLER_102_1633
*1382 FILLER_102_1645
*1383 FILLER_102_165
*1384 FILLER_102_1651
*1385 FILLER_102_1653
*1386 FILLER_102_1665
*1387 FILLER_102_1677
*1388 FILLER_102_1689
*1389 FILLER_102_1701
*1390 FILLER_102_1707
*1391 FILLER_102_1709
*1392 FILLER_102_1721
*1393 FILLER_102_1733
*1394 FILLER_102_1745
*1395 FILLER_102_1757
*1396 FILLER_102_1763
*1397 FILLER_102_1765
*1398 FILLER_102_177
*1399 FILLER_102_1777
*1400 FILLER_102_1789
*1401 FILLER_102_1801
*1402 FILLER_102_1813
*1403 FILLER_102_1819
*1404 FILLER_102_1821
*1405 FILLER_102_1833
*1406 FILLER_102_1845
*1407 FILLER_102_1857
*1408 FILLER_102_1869
*1409 FILLER_102_1875
*1410 FILLER_102_1877
*1411 FILLER_102_1889
*1412 FILLER_102_189
*1413 FILLER_102_1901
*1414 FILLER_102_1913
*1415 FILLER_102_1925
*1416 FILLER_102_195
*1417 FILLER_102_197
*1418 FILLER_102_209
*1419 FILLER_102_221
*1420 FILLER_102_233
*1421 FILLER_102_245
*1422 FILLER_102_251
*1423 FILLER_102_253
*1424 FILLER_102_265
*1425 FILLER_102_27
*1426 FILLER_102_277
*1427 FILLER_102_289
*1428 FILLER_102_29
*1429 FILLER_102_3
*1430 FILLER_102_301
*1431 FILLER_102_307
*1432 FILLER_102_309
*1433 FILLER_102_321
*1434 FILLER_102_333
*1435 FILLER_102_345
*1436 FILLER_102_357
*1437 FILLER_102_363
*1438 FILLER_102_365
*1439 FILLER_102_377
*1440 FILLER_102_389
*1441 FILLER_102_401
*1442 FILLER_102_41
*1443 FILLER_102_413
*1444 FILLER_102_419
*1445 FILLER_102_421
*1446 FILLER_102_433
*1447 FILLER_102_445
*1448 FILLER_102_457
*1449 FILLER_102_469
*1450 FILLER_102_475
*1451 FILLER_102_477
*1452 FILLER_102_489
*1453 FILLER_102_501
*1454 FILLER_102_513
*1455 FILLER_102_525
*1456 FILLER_102_53
*1457 FILLER_102_531
*1458 FILLER_102_533
*1459 FILLER_102_545
*1460 FILLER_102_557
*1461 FILLER_102_569
*1462 FILLER_102_581
*1463 FILLER_102_587
*1464 FILLER_102_589
*1465 FILLER_102_601
*1466 FILLER_102_613
*1467 FILLER_102_625
*1468 FILLER_102_637
*1469 FILLER_102_643
*1470 FILLER_102_645
*1471 FILLER_102_65
*1472 FILLER_102_657
*1473 FILLER_102_669
*1474 FILLER_102_681
*1475 FILLER_102_693
*1476 FILLER_102_699
*1477 FILLER_102_701
*1478 FILLER_102_713
*1479 FILLER_102_725
*1480 FILLER_102_737
*1481 FILLER_102_749
*1482 FILLER_102_755
*1483 FILLER_102_757
*1484 FILLER_102_769
*1485 FILLER_102_77
*1486 FILLER_102_781
*1487 FILLER_102_793
*1488 FILLER_102_805
*1489 FILLER_102_811
*1490 FILLER_102_813
*1491 FILLER_102_825
*1492 FILLER_102_83
*1493 FILLER_102_837
*1494 FILLER_102_849
*1495 FILLER_102_85
*1496 FILLER_102_861
*1497 FILLER_102_867
*1498 FILLER_102_869
*1499 FILLER_102_881
*1500 FILLER_102_893
*1501 FILLER_102_905
*1502 FILLER_102_917
*1503 FILLER_102_923
*1504 FILLER_102_925
*1505 FILLER_102_937
*1506 FILLER_102_949
*1507 FILLER_102_961
*1508 FILLER_102_97
*1509 FILLER_102_973
*1510 FILLER_102_979
*1511 FILLER_102_981
*1512 FILLER_102_993
*1513 FILLER_103_1001
*1514 FILLER_103_1007
*1515 FILLER_103_1009
*1516 FILLER_103_1021
*1517 FILLER_103_1033
*1518 FILLER_103_1045
*1519 FILLER_103_105
*1520 FILLER_103_1057
*1521 FILLER_103_1063
*1522 FILLER_103_1065
*1523 FILLER_103_1077
*1524 FILLER_103_1089
*1525 FILLER_103_1101
*1526 FILLER_103_111
*1527 FILLER_103_1113
*1528 FILLER_103_1119
*1529 FILLER_103_1121
*1530 FILLER_103_113
*1531 FILLER_103_1133
*1532 FILLER_103_1145
*1533 FILLER_103_1157
*1534 FILLER_103_1169
*1535 FILLER_103_1175
*1536 FILLER_103_1177
*1537 FILLER_103_1189
*1538 FILLER_103_1201
*1539 FILLER_103_1213
*1540 FILLER_103_1225
*1541 FILLER_103_1231
*1542 FILLER_103_1233
*1543 FILLER_103_1245
*1544 FILLER_103_125
*1545 FILLER_103_1257
*1546 FILLER_103_1269
*1547 FILLER_103_1281
*1548 FILLER_103_1287
*1549 FILLER_103_1289
*1550 FILLER_103_1301
*1551 FILLER_103_1313
*1552 FILLER_103_1325
*1553 FILLER_103_1337
*1554 FILLER_103_1343
*1555 FILLER_103_1345
*1556 FILLER_103_1357
*1557 FILLER_103_1369
*1558 FILLER_103_137
*1559 FILLER_103_1381
*1560 FILLER_103_1393
*1561 FILLER_103_1399
*1562 FILLER_103_1401
*1563 FILLER_103_1413
*1564 FILLER_103_1425
*1565 FILLER_103_1437
*1566 FILLER_103_1449
*1567 FILLER_103_1455
*1568 FILLER_103_1457
*1569 FILLER_103_1469
*1570 FILLER_103_1481
*1571 FILLER_103_149
*1572 FILLER_103_1493
*1573 FILLER_103_15
*1574 FILLER_103_1505
*1575 FILLER_103_1511
*1576 FILLER_103_1513
*1577 FILLER_103_1525
*1578 FILLER_103_1537
*1579 FILLER_103_1549
*1580 FILLER_103_1561
*1581 FILLER_103_1567
*1582 FILLER_103_1569
*1583 FILLER_103_1581
*1584 FILLER_103_1593
*1585 FILLER_103_1605
*1586 FILLER_103_161
*1587 FILLER_103_1617
*1588 FILLER_103_1623
*1589 FILLER_103_1625
*1590 FILLER_103_1637
*1591 FILLER_103_1649
*1592 FILLER_103_1661
*1593 FILLER_103_167
*1594 FILLER_103_1673
*1595 FILLER_103_1679
*1596 FILLER_103_1681
*1597 FILLER_103_169
*1598 FILLER_103_1693
*1599 FILLER_103_1705
*1600 FILLER_103_1717
*1601 FILLER_103_1729
*1602 FILLER_103_1735