*SPEF "ieee 1481-1999"
*DESIGN "user_proj_example"
*DATE "11:11:11 Fri 11 11, 1111"
*VENDOR "OpenRCX"
*PROGRAM "Parallel Extraction"
*VERSION "1.0"
*DESIGN_FLOW "NAME_SCOPE LOCAL" "PIN_CAP NONE"
*DIVIDER /
*DELIMITER :
*BUS_DELIMITER []
*T_UNIT 1 NS
*C_UNIT 1 PF
*R_UNIT 1 OHM
*L_UNIT 1 HENRY

*NAME_MAP
*1 io_in[0]
*2 io_in[10]
*3 io_in[11]
*4 io_in[12]
*5 io_in[13]
*6 io_in[14]
*7 io_in[15]
*8 io_in[16]
*9 io_in[17]
*10 io_in[18]
*11 io_in[19]
*12 io_in[1]
*13 io_in[20]
*14 io_in[21]
*15 io_in[22]
*16 io_in[23]
*17 io_in[24]
*18 io_in[25]
*19 io_in[26]
*20 io_in[27]
*21 io_in[28]
*22 io_in[29]
*23 io_in[2]
*24 io_in[30]
*25 io_in[31]
*26 io_in[32]
*27 io_in[33]
*28 io_in[34]
*29 io_in[35]
*30 io_in[36]
*31 io_in[37]
*32 io_in[3]
*33 io_in[4]
*34 io_in[5]
*35 io_in[6]
*36 io_in[7]
*37 io_in[8]
*38 io_in[9]
*39 io_oeb[0]
*40 io_oeb[10]
*41 io_oeb[11]
*42 io_oeb[12]
*43 io_oeb[13]
*44 io_oeb[14]
*45 io_oeb[15]
*46 io_oeb[16]
*47 io_oeb[17]
*48 io_oeb[18]
*49 io_oeb[19]
*50 io_oeb[1]
*51 io_oeb[20]
*52 io_oeb[21]
*53 io_oeb[22]
*54 io_oeb[23]
*55 io_oeb[24]
*56 io_oeb[25]
*57 io_oeb[26]
*58 io_oeb[27]
*59 io_oeb[28]
*60 io_oeb[29]
*61 io_oeb[2]
*62 io_oeb[30]
*63 io_oeb[31]
*64 io_oeb[32]
*65 io_oeb[33]
*66 io_oeb[34]
*67 io_oeb[35]
*68 io_oeb[36]
*69 net279
*70 io_oeb[3]
*71 io_oeb[4]
*72 io_oeb[5]
*73 io_oeb[6]
*74 io_oeb[7]
*75 io_oeb[8]
*76 io_oeb[9]
*77 io_out[0]
*78 io_out[10]
*79 io_out[11]
*80 io_out[12]
*81 io_out[13]
*82 io_out[14]
*83 io_out[15]
*84 io_out[16]
*85 io_out[17]
*86 io_out[18]
*87 io_out[19]
*88 io_out[1]
*89 io_out[20]
*90 io_out[21]
*91 io_out[22]
*92 io_out[23]
*93 io_out[24]
*94 io_out[25]
*95 io_out[26]
*96 io_out[27]
*97 io_out[28]
*98 io_out[29]
*99 io_out[2]
*100 io_out[30]
*101 io_out[31]
*102 net280
*103 net281
*104 net282
*105 net283
*106 net284
*107 net285
*108 io_out[3]
*109 io_out[4]
*110 io_out[5]
*111 io_out[6]
*112 io_out[7]
*113 io_out[8]
*114 io_out[9]
*115 net286
*116 net287
*117 net288
*118 la_data_in[0]
*119 la_data_in[100]
*120 la_data_in[101]
*121 la_data_in[102]
*122 la_data_in[103]
*123 la_data_in[104]
*124 la_data_in[105]
*125 la_data_in[106]
*126 la_data_in[107]
*127 la_data_in[108]
*128 la_data_in[109]
*129 la_data_in[10]
*130 la_data_in[110]
*131 la_data_in[111]
*132 la_data_in[112]
*133 la_data_in[113]
*134 la_data_in[114]
*135 la_data_in[115]
*136 la_data_in[116]
*137 la_data_in[117]
*138 la_data_in[118]
*139 la_data_in[119]
*140 la_data_in[11]
*141 la_data_in[120]
*142 la_data_in[121]
*143 la_data_in[122]
*144 la_data_in[123]
*145 la_data_in[124]
*146 la_data_in[125]
*147 la_data_in[126]
*148 la_data_in[127]
*149 la_data_in[12]
*150 la_data_in[13]
*151 la_data_in[14]
*152 la_data_in[15]
*153 la_data_in[16]
*154 la_data_in[17]
*155 la_data_in[18]
*156 la_data_in[19]
*157 la_data_in[1]
*158 la_data_in[20]
*159 la_data_in[21]
*160 la_data_in[22]
*161 la_data_in[23]
*162 la_data_in[24]
*163 la_data_in[25]
*164 la_data_in[26]
*165 la_data_in[27]
*166 la_data_in[28]
*167 la_data_in[29]
*168 la_data_in[2]
*169 la_data_in[30]
*170 la_data_in[31]
*171 la_data_in[32]
*172 la_data_in[33]
*173 la_data_in[34]
*174 la_data_in[35]
*175 la_data_in[36]
*176 la_data_in[37]
*177 la_data_in[38]
*178 la_data_in[39]
*179 la_data_in[3]
*180 la_data_in[40]
*181 la_data_in[41]
*182 la_data_in[42]
*183 la_data_in[43]
*184 la_data_in[44]
*185 la_data_in[45]
*186 la_data_in[46]
*187 la_data_in[47]
*188 la_data_in[48]
*189 la_data_in[49]
*190 la_data_in[4]
*191 la_data_in[50]
*192 la_data_in[51]
*193 la_data_in[52]
*194 la_data_in[53]
*195 la_data_in[54]
*196 la_data_in[55]
*197 la_data_in[56]
*198 la_data_in[57]
*199 la_data_in[58]
*200 la_data_in[59]
*201 la_data_in[5]
*202 la_data_in[60]
*203 la_data_in[61]
*204 la_data_in[62]
*205 la_data_in[63]
*206 la_data_in[64]
*207 la_data_in[65]
*208 la_data_in[66]
*209 la_data_in[67]
*210 la_data_in[68]
*211 la_data_in[69]
*212 la_data_in[6]
*213 la_data_in[70]
*214 la_data_in[71]
*215 la_data_in[72]
*216 la_data_in[73]
*217 la_data_in[74]
*218 la_data_in[75]
*219 la_data_in[76]
*220 la_data_in[77]
*221 la_data_in[78]
*222 la_data_in[79]
*223 la_data_in[7]
*224 la_data_in[80]
*225 la_data_in[81]
*226 la_data_in[82]
*227 la_data_in[83]
*228 la_data_in[84]
*229 la_data_in[85]
*230 la_data_in[86]
*231 la_data_in[87]
*232 la_data_in[88]
*233 la_data_in[89]
*234 la_data_in[8]
*235 la_data_in[90]
*236 la_data_in[91]
*237 la_data_in[92]
*238 la_data_in[93]
*239 la_data_in[94]
*240 la_data_in[95]
*241 la_data_in[96]
*242 la_data_in[97]
*243 la_data_in[98]
*244 la_data_in[99]
*245 la_data_in[9]
*246 la_data_out[0]
*247 net293
*248 net294
*249 net295
*250 net296
*251 net297
*252 net298
*253 net299
*254 net300
*255 net301
*256 net302
*257 la_data_out[10]
*258 net303
*259 net304
*260 net305
*261 net306
*262 net307
*263 net308
*264 net309
*265 net310
*266 net311
*267 net312
*268 la_data_out[11]
*269 net313
*270 net314
*271 net315
*272 net316
*273 net317
*274 net318
*275 net319
*276 net320
*277 la_data_out[12]
*278 la_data_out[13]
*279 la_data_out[14]
*280 la_data_out[15]
*281 la_data_out[16]
*282 la_data_out[17]
*283 la_data_out[18]
*284 la_data_out[19]
*285 la_data_out[1]
*286 la_data_out[20]
*287 la_data_out[21]
*288 la_data_out[22]
*289 la_data_out[23]
*290 la_data_out[24]
*291 la_data_out[25]
*292 la_data_out[26]
*293 la_data_out[27]
*294 la_data_out[28]
*295 la_data_out[29]
*296 la_data_out[2]
*297 la_data_out[30]
*298 la_data_out[31]
*299 la_data_out[32]
*300 la_data_out[33]
*301 la_data_out[34]
*302 la_data_out[35]
*303 la_data_out[36]
*304 la_data_out[37]
*305 la_data_out[38]
*306 la_data_out[39]
*307 la_data_out[3]
*308 la_data_out[40]
*309 la_data_out[41]
*310 la_data_out[42]
*311 la_data_out[43]
*312 la_data_out[44]
*313 la_data_out[45]
*314 la_data_out[46]
*315 la_data_out[47]
*316 la_data_out[48]
*317 la_data_out[49]
*318 la_data_out[4]
*319 la_data_out[50]
*320 la_data_out[51]
*321 la_data_out[52]
*322 la_data_out[53]
*323 la_data_out[54]
*324 la_data_out[55]
*325 la_data_out[56]
*326 la_data_out[57]
*327 la_data_out[58]
*328 la_data_out[59]
*329 la_data_out[5]
*330 la_data_out[60]
*331 la_data_out[61]
*332 la_data_out[62]
*333 la_data_out[63]
*334 la_data_out[64]
*335 la_data_out[65]
*336 la_data_out[66]
*337 la_data_out[67]
*338 la_data_out[68]
*339 la_data_out[69]
*340 la_data_out[6]
*341 la_data_out[70]
*342 la_data_out[71]
*343 la_data_out[72]
*344 la_data_out[73]
*345 la_data_out[74]
*346 la_data_out[75]
*347 la_data_out[76]
*348 la_data_out[77]
*349 la_data_out[78]
*350 la_data_out[79]
*351 la_data_out[7]
*352 la_data_out[80]
*353 la_data_out[81]
*354 la_data_out[82]
*355 la_data_out[83]
*356 la_data_out[84]
*357 la_data_out[85]
*358 la_data_out[86]
*359 la_data_out[87]
*360 la_data_out[88]
*361 la_data_out[89]
*362 la_data_out[8]
*363 la_data_out[90]
*364 la_data_out[91]
*365 la_data_out[92]
*366 la_data_out[93]
*367 la_data_out[94]
*368 la_data_out[95]
*369 net289
*370 net290
*371 net291
*372 net292
*373 la_data_out[9]
*374 la_oenb[0]
*375 la_oenb[100]
*376 la_oenb[101]
*377 la_oenb[102]
*378 la_oenb[103]
*379 la_oenb[104]
*380 la_oenb[105]
*381 la_oenb[106]
*382 la_oenb[107]
*383 la_oenb[108]
*384 la_oenb[109]
*385 la_oenb[10]
*386 la_oenb[110]
*387 la_oenb[111]
*388 la_oenb[112]
*389 la_oenb[113]
*390 la_oenb[114]
*391 la_oenb[115]
*392 la_oenb[116]
*393 la_oenb[117]
*394 la_oenb[118]
*395 la_oenb[119]
*396 la_oenb[11]
*397 la_oenb[120]
*398 la_oenb[121]
*399 la_oenb[122]
*400 la_oenb[123]
*401 la_oenb[124]
*402 la_oenb[125]
*403 la_oenb[126]
*404 la_oenb[127]
*405 la_oenb[12]
*406 la_oenb[13]
*407 la_oenb[14]
*408 la_oenb[15]
*409 la_oenb[16]
*410 la_oenb[17]
*411 la_oenb[18]
*412 la_oenb[19]
*413 la_oenb[1]
*414 la_oenb[20]
*415 la_oenb[21]
*416 la_oenb[22]
*417 la_oenb[23]
*418 la_oenb[24]
*419 la_oenb[25]
*420 la_oenb[26]
*421 la_oenb[27]
*422 la_oenb[28]
*423 la_oenb[29]
*424 la_oenb[2]
*425 la_oenb[30]
*426 la_oenb[31]
*427 la_oenb[32]
*428 la_oenb[33]
*429 la_oenb[34]
*430 la_oenb[35]
*431 la_oenb[36]
*432 la_oenb[37]
*433 la_oenb[38]
*434 la_oenb[39]
*435 la_oenb[3]
*436 la_oenb[40]
*437 la_oenb[41]
*438 la_oenb[42]
*439 la_oenb[43]
*440 la_oenb[44]
*441 la_oenb[45]
*442 la_oenb[46]
*443 la_oenb[47]
*444 la_oenb[48]
*445 la_oenb[49]
*446 la_oenb[4]
*447 la_oenb[50]
*448 la_oenb[51]
*449 la_oenb[52]
*450 la_oenb[53]
*451 la_oenb[54]
*452 la_oenb[55]
*453 la_oenb[56]
*454 la_oenb[57]
*455 la_oenb[58]
*456 la_oenb[59]
*457 la_oenb[5]
*458 la_oenb[60]
*459 la_oenb[61]
*460 la_oenb[62]
*461 la_oenb[63]
*462 la_oenb[64]
*463 la_oenb[65]
*464 la_oenb[66]
*465 la_oenb[67]
*466 la_oenb[68]
*467 la_oenb[69]
*468 la_oenb[6]
*469 la_oenb[70]
*470 la_oenb[71]
*471 la_oenb[72]
*472 la_oenb[73]
*473 la_oenb[74]
*474 la_oenb[75]
*475 la_oenb[76]
*476 la_oenb[77]
*477 la_oenb[78]
*478 la_oenb[79]
*479 la_oenb[7]
*480 la_oenb[80]
*481 la_oenb[81]
*482 la_oenb[82]
*483 la_oenb[83]
*484 la_oenb[84]
*485 la_oenb[85]
*486 la_oenb[86]
*487 la_oenb[87]
*488 la_oenb[88]
*489 la_oenb[89]
*490 la_oenb[8]
*491 la_oenb[90]
*492 la_oenb[91]
*493 la_oenb[92]
*494 la_oenb[93]
*495 la_oenb[94]
*496 la_oenb[95]
*497 la_oenb[96]
*498 la_oenb[97]
*499 la_oenb[98]
*500 la_oenb[99]
*501 la_oenb[9]
*504 wb_clk_i
*505 wb_rst_i
*506 net321
*507 wbs_adr_i[0]
*508 wbs_adr_i[10]
*509 wbs_adr_i[11]
*510 wbs_adr_i[12]
*511 wbs_adr_i[13]
*512 wbs_adr_i[14]
*513 wbs_adr_i[15]
*514 wbs_adr_i[16]
*515 wbs_adr_i[17]
*516 wbs_adr_i[18]
*517 wbs_adr_i[19]
*518 wbs_adr_i[1]
*519 wbs_adr_i[20]
*520 wbs_adr_i[21]
*521 wbs_adr_i[22]
*522 wbs_adr_i[23]
*523 wbs_adr_i[24]
*524 wbs_adr_i[25]
*525 wbs_adr_i[26]
*526 wbs_adr_i[27]
*527 wbs_adr_i[28]
*528 wbs_adr_i[29]
*529 wbs_adr_i[2]
*530 wbs_adr_i[30]
*531 wbs_adr_i[31]
*532 wbs_adr_i[3]
*533 wbs_adr_i[4]
*534 wbs_adr_i[5]
*535 wbs_adr_i[6]
*536 wbs_adr_i[7]
*537 wbs_adr_i[8]
*538 wbs_adr_i[9]
*539 wbs_cyc_i
*540 wbs_dat_i[0]
*541 wbs_dat_i[10]
*542 wbs_dat_i[11]
*543 wbs_dat_i[12]
*544 wbs_dat_i[13]
*545 wbs_dat_i[14]
*546 wbs_dat_i[15]
*547 wbs_dat_i[16]
*548 wbs_dat_i[17]
*549 wbs_dat_i[18]
*550 wbs_dat_i[19]
*551 wbs_dat_i[1]
*552 wbs_dat_i[20]
*553 wbs_dat_i[21]
*554 wbs_dat_i[22]
*555 wbs_dat_i[23]
*556 wbs_dat_i[24]
*557 wbs_dat_i[25]
*558 wbs_dat_i[26]
*559 wbs_dat_i[27]
*560 wbs_dat_i[28]
*561 wbs_dat_i[29]
*562 wbs_dat_i[2]
*563 wbs_dat_i[30]
*564 wbs_dat_i[31]
*565 wbs_dat_i[3]
*566 wbs_dat_i[4]
*567 wbs_dat_i[5]
*568 wbs_dat_i[6]
*569 wbs_dat_i[7]
*570 wbs_dat_i[8]
*571 wbs_dat_i[9]
*572 net322
*573 net332
*574 net333
*575 net334
*576 net335
*577 net336
*578 net337
*579 net338
*580 net339
*581 net340
*582 net341
*583 net323
*584 net342
*585 net343
*586 net344
*587 net345
*588 net346
*589 net347
*590 net348
*591 net349
*592 net350
*593 net351
*594 net324
*595 net352
*596 net353
*597 net325
*598 net326
*599 net327
*600 net328
*601 net329
*602 net330
*603 net331
*604 wbs_sel_i[0]
*605 wbs_sel_i[1]
*606 wbs_sel_i[2]
*607 wbs_sel_i[3]
*608 wbs_stb_i
*609 wbs_we_i
*610 _0000_
*611 _0001_
*612 _0002_
*613 _0003_
*614 _0004_
*615 _0005_
*616 _0006_
*617 _0007_
*618 _0008_
*619 _0009_
*620 _0010_
*621 _0011_
*622 _0012_
*623 _0013_
*624 _0014_
*625 _0015_
*626 _0016_
*627 _0017_
*628 _0018_
*629 _0019_
*630 _0020_
*631 _0021_
*632 _0022_
*633 _0023_
*634 _0024_
*635 _0025_
*636 _0026_
*637 _0027_
*638 _0028_
*639 _0029_
*640 _0030_
*641 _0031_
*642 _0032_
*643 _0033_
*644 _0034_
*645 _0035_
*646 _0036_
*647 _0037_
*648 _0038_
*649 _0039_
*650 _0040_
*651 _0041_
*652 _0042_
*653 _0043_
*654 _0044_
*655 _0045_
*656 _0046_
*657 _0047_
*658 _0048_
*659 _0049_
*660 _0050_
*661 _0051_
*662 _0052_
*663 _0053_
*664 _0054_
*665 _0055_
*666 _0056_
*667 _0057_
*668 _0058_
*669 _0059_
*670 _0060_
*671 _0061_
*672 _0062_
*673 _0063_
*674 _0064_
*675 _0065_
*676 _0066_
*677 _0067_
*678 _0068_
*679 _0069_
*680 _0070_
*681 _0071_
*682 _0072_
*683 _0073_
*684 _0074_
*685 _0075_
*686 _0076_
*687 _0077_
*688 _0078_
*689 _0079_
*690 _0080_
*691 _0081_
*692 _0082_
*693 _0083_
*694 _0084_
*695 _0085_
*696 _0086_
*697 _0087_
*698 _0088_
*699 _0089_
*700 _0090_
*701 _0091_
*702 _0092_
*703 _0093_
*704 _0094_
*705 _0095_
*706 _0096_
*707 _0097_
*708 _0098_
*709 _0099_
*710 _0100_
*711 _0101_
*712 _0102_
*713 _0103_
*714 _0104_
*715 _0105_
*716 _0106_
*717 _0107_
*718 _0108_
*719 _0109_
*720 _0110_
*721 _0111_
*722 _0112_
*723 _0113_
*724 _0114_
*725 _0115_
*726 _0116_
*727 _0117_
*728 _0118_
*729 _0119_
*730 _0120_
*731 _0121_
*732 _0122_
*733 _0123_
*734 _0124_
*735 _0125_
*736 _0126_
*737 _0127_
*738 _0128_
*739 _0129_
*740 _0130_
*741 _0131_
*742 _0132_
*743 _0133_
*744 _0134_
*745 _0135_
*746 _0136_
*747 _0137_
*748 _0138_
*749 _0139_
*750 _0140_
*751 _0141_
*752 _0142_
*753 _0143_
*754 _0144_
*755 _0145_
*756 _0146_
*757 _0147_
*758 _0148_
*759 _0149_
*760 _0150_
*761 _0151_
*762 _0152_
*763 _0153_
*764 _0154_
*765 _0155_
*766 _0156_
*767 _0157_
*768 _0158_
*769 _0159_
*770 _0160_
*771 _0161_
*772 _0162_
*773 _0163_
*774 _0164_
*775 _0165_
*776 _0166_
*777 _0167_
*778 _0168_
*779 _0169_
*780 _0170_
*781 _0171_
*782 _0172_
*783 _0173_
*784 _0174_
*785 _0175_
*786 _0176_
*787 _0177_
*788 _0178_
*789 _0179_
*790 _0180_
*791 _0181_
*792 _0182_
*793 _0183_
*794 _0184_
*795 _0185_
*796 _0186_
*797 _0187_
*798 _0188_
*799 _0189_
*800 _0190_
*801 _0191_
*802 _0192_
*803 _0193_
*804 _0194_
*805 _0195_
*806 _0196_
*807 _0197_
*808 _0198_
*809 _0199_
*810 _0200_
*811 _0201_
*812 _0202_
*813 _0203_
*814 _0204_
*815 _0205_
*816 _0206_
*817 _0207_
*818 _0208_
*819 _0209_
*820 _0210_
*821 _0211_
*822 _0212_
*823 _0213_
*824 _0214_
*825 _0215_
*826 _0216_
*827 _0217_
*828 _0218_
*829 _0219_
*830 _0220_
*831 _0221_
*832 _0222_
*833 _0223_
*834 _0224_
*835 _0225_
*836 _0226_
*837 _0227_
*838 _0228_
*839 _0229_
*840 _0230_
*841 _0231_
*842 _0232_
*843 _0233_
*844 _0234_
*845 _0235_
*846 _0236_
*847 _0237_
*848 _0238_
*849 _0239_
*850 _0240_
*851 _0241_
*852 _0242_
*853 _0243_
*854 _0244_
*855 _0245_
*856 _0246_
*857 _0247_
*858 _0248_
*859 _0249_
*860 _0250_
*861 _0251_
*862 _0252_
*863 _0253_
*864 _0254_
*865 _0255_
*866 _0256_
*867 _0257_
*868 _0258_
*869 _0259_
*870 _0260_
*871 _0261_
*872 _0262_
*873 _0263_
*874 _0264_
*875 _0265_
*876 _0266_
*877 _0267_
*878 _0268_
*879 _0269_
*880 _0270_
*881 _0271_
*882 _0272_
*883 _0273_
*884 _0274_
*885 _0275_
*886 _0276_
*887 _0277_
*888 _0278_
*889 _0279_
*890 _0280_
*891 _0281_
*892 _0282_
*893 _0283_
*894 _0284_
*895 _0285_
*896 _0286_
*897 _0287_
*898 _0288_
*899 _0289_
*900 _0290_
*901 _0291_
*902 _0292_
*903 _0293_
*904 _0294_
*905 _0295_
*906 _0296_
*907 _0297_
*908 _0298_
*909 _0299_
*910 _0300_
*911 _0301_
*912 _0302_
*913 _0303_
*914 _0304_
*915 _0305_
*916 _0306_
*917 _0307_
*918 _0308_
*919 _0309_
*920 _0310_
*921 _0311_
*922 _0312_
*923 _0313_
*924 _0314_
*925 _0315_
*926 _0316_
*927 _0317_
*928 _0318_
*929 _0319_
*930 _0320_
*931 _0321_
*932 _0322_
*933 _0323_
*934 _0324_
*935 _0325_
*936 _0326_
*937 _0327_
*938 _0328_
*939 _0329_
*940 _0330_
*941 _0331_
*942 _0332_
*943 _0333_
*944 _0334_
*945 _0335_
*946 _0336_
*947 _0337_
*948 _0338_
*949 _0339_
*950 _0340_
*951 _0341_
*952 _0342_
*953 _0343_
*954 _0344_
*955 _0345_
*956 _0346_
*957 _0347_
*958 _0348_
*959 _0349_
*960 _0350_
*961 _0351_
*962 _0352_
*963 _0353_
*964 _0354_
*965 _0355_
*966 _0356_
*967 _0357_
*968 _0358_
*969 _0359_
*970 _0360_
*971 _0361_
*972 _0362_
*973 _0363_
*974 _0364_
*975 _0365_
*976 _0366_
*977 _0367_
*978 _0368_
*979 _0369_
*980 _0370_
*981 _0371_
*982 _0372_
*983 _0373_
*984 _0374_
*985 _0375_
*986 _0376_
*987 _0377_
*988 _0378_
*989 _0379_
*990 _0380_
*991 _0381_
*992 _0382_
*993 _0383_
*994 _0384_
*995 _0385_
*996 _0386_
*997 _0387_
*998 _0388_
*999 _0389_
*1000 _0390_
*1001 _0391_
*1002 _0392_
*1003 _0393_
*1004 _0394_
*1005 _0395_
*1006 _0396_
*1007 _0397_
*1008 _0398_
*1009 _0399_
*1010 _0400_
*1011 _0401_
*1012 _0402_
*1013 _0403_
*1014 _0404_
*1015 _0405_
*1016 _0406_
*1017 _0407_
*1018 _0408_
*1019 _0409_
*1020 _0410_
*1021 _0411_
*1022 _0412_
*1023 _0413_
*1024 _0414_
*1025 _0415_
*1026 _0416_
*1027 _0417_
*1028 _0418_
*1029 _0419_
*1030 _0420_
*1031 _0421_
*1032 _0422_
*1033 _0423_
*1034 _0424_
*1035 _0425_
*1036 _0426_
*1037 _0427_
*1038 _0428_
*1039 _0429_
*1040 _0430_
*1041 _0431_
*1042 _0432_
*1043 _0433_
*1044 _0434_
*1045 _0435_
*1046 _0436_
*1047 _0437_
*1048 _0438_
*1049 _0439_
*1050 _0440_
*1051 _0441_
*1052 _0442_
*1053 _0443_
*1054 _0444_
*1055 _0445_
*1056 _0446_
*1057 _0447_
*1058 _0448_
*1059 _0449_
*1060 _0450_
*1061 _0451_
*1062 _0452_
*1063 _0453_
*1064 _0454_
*1065 _0455_
*1066 _0456_
*1067 _0457_
*1068 _0458_
*1069 _0459_
*1070 _0460_
*1071 _0461_
*1072 _0462_
*1073 _0463_
*1074 _0464_
*1075 _0465_
*1076 _0466_
*1077 _0467_
*1078 _0468_
*1079 _0469_
*1080 _0470_
*1081 _0471_
*1082 _0472_
*1083 _0473_
*1084 _0474_
*1085 _0475_
*1086 _0476_
*1087 _0477_
*1088 _0478_
*1089 _0479_
*1090 _0480_
*1091 _0481_
*1092 _0482_
*1093 _0483_
*1094 _0484_
*1095 _0485_
*1096 _0486_
*1097 _0487_
*1098 _0488_
*1099 _0489_
*1100 _0490_
*1101 _0491_
*1102 _0492_
*1103 _0493_
*1104 _0494_
*1105 _0495_
*1106 _0496_
*1107 _0497_
*1108 _0498_
*1109 _0499_
*1110 _0500_
*1111 _0501_
*1112 _0502_
*1113 _0503_
*1114 _0504_
*1115 _0505_
*1116 _0506_
*1117 _0507_
*1118 _0508_
*1119 _0509_
*1120 _0510_
*1121 _0511_
*1122 _0512_
*1123 _0513_
*1124 _0514_
*1125 _0515_
*1126 _0516_
*1127 _0517_
*1128 _0518_
*1129 _0519_
*1130 _0520_
*1131 _0521_
*1132 _0522_
*1133 _0523_
*1134 _0524_
*1135 _0525_
*1136 _0526_
*1137 _0527_
*1138 _0528_
*1139 _0529_
*1140 _0530_
*1141 _0531_
*1142 _0532_
*1143 _0533_
*1144 _0534_
*1145 _0535_
*1146 _0536_
*1147 _0537_
*1148 _0538_
*1149 _0539_
*1150 _0540_
*1151 _0541_
*1152 _0542_
*1153 _0543_
*1154 _0544_
*1155 _0545_
*1156 _0546_
*1157 _0547_
*1158 _0548_
*1159 _0549_
*1160 _0550_
*1161 _0551_
*1162 _0552_
*1163 _0553_
*1164 _0554_
*1165 _0555_
*1166 _0556_
*1167 _0557_
*1168 _0558_
*1169 _0559_
*1170 _0560_
*1171 _0561_
*1172 _0562_
*1173 _0563_
*1174 _0564_
*1175 _0565_
*1176 _0566_
*1177 _0567_
*1178 _0568_
*1179 _0569_
*1180 _0570_
*1181 _0571_
*1182 _0572_
*1183 _0573_
*1184 _0574_
*1185 _0575_
*1186 _0576_
*1187 _0577_
*1188 _0578_
*1189 _0579_
*1190 _0580_
*1191 _0581_
*1192 _0582_
*1193 _0583_
*1194 _0584_
*1195 _0585_
*1196 _0586_
*1197 _0587_
*1198 _0588_
*1199 _0589_
*1200 _0590_
*1201 _0591_
*1202 _0592_
*1203 _0593_
*1204 _0594_
*1205 _0595_
*1206 _0596_
*1207 _0597_
*1208 _0598_
*1209 _0599_
*1210 _0600_
*1211 _0601_
*1212 _0602_
*1213 _0603_
*1214 _0604_
*1215 _0605_
*1216 _0606_
*1217 _0607_
*1218 _0608_
*1219 _0609_
*1220 _0610_
*1221 _0611_
*1222 _0612_
*1223 _0613_
*1224 _0614_
*1225 _0615_
*1226 _0616_
*1227 _0617_
*1228 _0618_
*1229 _0619_
*1230 _0620_
*1231 _0621_
*1232 _0622_
*1233 _0623_
*1234 _0624_
*1235 _0625_
*1236 _0626_
*1237 _0627_
*1238 _0628_
*1239 _0629_
*1240 _0630_
*1241 _0631_
*1242 _0632_
*1243 _0633_
*1244 _0634_
*1245 _0635_
*1246 _0636_
*1247 _0637_
*1248 _0638_
*1249 _0639_
*1250 _0640_
*1251 _0641_
*1252 _0642_
*1253 _0643_
*1254 _0644_
*1255 _0645_
*1256 _0646_
*1257 _0647_
*1258 _0648_
*1259 _0649_
*1260 _0650_
*1261 _0651_
*1262 _0652_
*1263 _0653_
*1264 _0654_
*1265 _0655_
*1266 _0656_
*1267 _0657_
*1268 _0658_
*1269 _0659_
*1270 _0660_
*1271 _0661_
*1272 _0662_
*1273 _0663_
*1274 _0664_
*1275 _0665_
*1276 _0666_
*1277 _0667_
*1278 _0668_
*1279 _0669_
*1280 _0670_
*1281 _0671_
*1282 _0672_
*1283 _0673_
*1284 _0674_
*1285 _0675_
*1286 _0676_
*1287 _0677_
*1288 _0678_
*1289 _0679_
*1290 _0680_
*1291 _0681_
*1292 _0682_
*1293 _0683_
*1294 _0684_
*1295 _0685_
*1296 _0686_
*1297 _0687_
*1298 _0688_
*1299 _0689_
*1300 _0690_
*1301 _0691_
*1302 _0692_
*1303 _0693_
*1304 _0694_
*1305 _0695_
*1306 _0696_
*1307 _0697_
*1308 _0698_
*1309 _0699_
*1310 _0700_
*1311 _0701_
*1312 _0702_
*1313 _0703_
*1314 _0704_
*1315 _0705_
*1316 _0706_
*1317 _0707_
*1318 _0708_
*1319 _0709_
*1320 _0710_
*1321 _0711_
*1322 _0712_
*1323 _0713_
*1324 _0714_
*1325 _0715_
*1326 _0716_
*1327 _0717_
*1328 _0718_
*1329 _0719_
*1330 _0720_
*1331 _0721_
*1332 _0722_
*1333 _0723_
*1334 _0724_
*1335 _0725_
*1336 _0726_
*1337 _0727_
*1338 _0728_
*1339 _0729_
*1340 _0730_
*1341 _0731_
*1342 _0732_
*1343 _0733_
*1344 _0734_
*1345 _0735_
*1346 _0736_
*1347 _0737_
*1348 _0738_
*1349 _0739_
*1350 _0740_
*1351 _0741_
*1352 _0742_
*1353 _0743_
*1354 _0744_
*1355 _0745_
*1356 _0746_
*1357 _0747_
*1358 _0748_
*1359 _0749_
*1360 _0750_
*1361 _0751_
*1362 _0752_
*1363 _0753_
*1364 _0754_
*1365 _0755_
*1366 _0756_
*1367 _0757_
*1368 _0758_
*1369 _0759_
*1370 _0760_
*1371 _0761_
*1372 _0762_
*1373 _0763_
*1374 _0764_
*1375 _0765_
*1376 _0766_
*1377 _0767_
*1378 _0768_
*1379 _0769_
*1380 _0770_
*1381 _0771_
*1382 _0772_
*1383 _0773_
*1384 _0774_
*1385 _0775_
*1386 _0776_
*1387 _0777_
*1388 _0778_
*1389 _0779_
*1390 _0780_
*1391 _0781_
*1392 _0782_
*1393 _0783_
*1394 _0784_
*1395 _0785_
*1396 _0786_
*1397 _0787_
*1398 _0788_
*1399 _0789_
*1400 _0790_
*1401 _0791_
*1402 _0792_
*1403 _0793_
*1404 _0794_
*1405 _0795_
*1406 _0796_
*1407 _0797_
*1408 _0798_
*1409 _0799_
*1410 _0800_
*1411 _0801_
*1412 _0802_
*1413 _0803_
*1414 _0804_
*1415 _0805_
*1416 _0806_
*1417 _0807_
*1418 _0808_
*1419 _0809_
*1420 _0810_
*1421 _0811_
*1422 _0812_
*1423 _0813_
*1424 _0814_
*1425 _0815_
*1426 _0816_
*1427 _0817_
*1428 _0818_
*1429 _0819_
*1430 _0820_
*1431 _0821_
*1432 _0822_
*1433 _0823_
*1434 _0824_
*1435 _0825_
*1436 _0826_
*1437 _0827_
*1438 _0828_
*1439 _0829_
*1440 _0830_
*1441 _0831_
*1442 _0832_
*1443 _0833_
*1444 _0834_
*1445 _0835_
*1446 _0836_
*1447 _0837_
*1448 _0838_
*1449 _0839_
*1450 _0840_
*1451 _0841_
*1452 _0842_
*1453 _0843_
*1454 _0844_
*1455 _0845_
*1456 _0846_
*1457 _0847_
*1458 _0848_
*1459 _0849_
*1460 _0850_
*1461 _0851_
*1462 _0852_
*1463 _0853_
*1464 _0854_
*1465 _0855_
*1466 _0856_
*1467 _0857_
*1468 _0858_
*1469 _0859_
*1470 _0860_
*1471 _0861_
*1472 _0862_
*1473 _0863_
*1474 _0864_
*1475 _0865_
*1476 _0866_
*1477 _0867_
*1478 _0868_
*1479 _0869_
*1480 _0870_
*1481 _0871_
*1482 _0872_
*1483 _0873_
*1484 _0874_
*1485 _0875_
*1486 _0876_
*1487 _0877_
*1488 _0878_
*1489 _0879_
*1490 _0880_
*1491 _0881_
*1492 _0882_
*1493 _0883_
*1494 _0884_
*1495 _0885_
*1496 _0886_
*1497 _0887_
*1498 _0888_
*1499 _0889_
*1500 _0890_
*1501 _0891_
*1502 _0892_
*1503 _0893_
*1504 _0894_
*1505 _0895_
*1506 _0896_
*1507 _0897_
*1508 _0898_
*1509 _0899_
*1510 _0900_
*1511 _0901_
*1512 _0902_
*1513 _0903_
*1514 _0904_
*1515 _0905_
*1516 _0906_
*1517 _0907_
*1518 _0908_
*1519 _0909_
*1520 _0910_
*1521 _0911_
*1522 _0912_
*1523 _0913_
*1524 _0914_
*1525 _0915_
*1526 _0916_
*1527 _0917_
*1528 _0918_
*1529 _0919_
*1530 _0920_
*1531 _0921_
*1532 _0922_
*1533 _0923_
*1534 _0924_
*1535 _0925_
*1536 _0926_
*1537 _0927_
*1538 _0928_
*1539 _0929_
*1540 _0930_
*1541 _0931_
*1542 _0932_
*1543 _0933_
*1544 _0934_
*1545 _0935_
*1546 _0936_
*1547 _0937_
*1548 _0938_
*1549 _0939_
*1550 _0940_
*1551 _0941_
*1552 _0942_
*1553 _0943_
*1554 _0944_
*1555 _0945_
*1556 _0946_
*1557 _0947_
*1558 _0948_
*1559 _0949_
*1560 _0950_
*1561 _0951_
*1562 _0952_
*1563 _0953_
*1564 _0954_
*1565 _0955_
*1566 _0956_
*1567 _0957_
*1568 _0958_
*1569 _0959_
*1570 _0960_
*1571 _0961_
*1572 _0962_
*1573 _0963_
*1574 _0964_
*1575 _0965_
*1576 _0966_
*1577 _0967_
*1578 _0968_
*1579 _0969_
*1580 _0970_
*1581 _0971_
*1582 _0972_
*1583 _0973_
*1584 _0974_
*1585 _0975_
*1586 _0976_
*1587 _0977_
*1588 _0978_
*1589 _0979_
*1590 _0980_
*1591 _0981_
*1592 _0982_
*1593 _0983_
*1594 _0984_
*1595 _0985_
*1596 _0986_
*1597 _0987_
*1598 _0988_
*1599 _0989_
*1600 _0990_
*1601 _0991_
*1602 _0992_
*1603 _0993_
*1604 _0994_
*1605 _0995_
*1606 _0996_
*1607 _0997_
*1608 _0998_
*1609 _0999_
*1610 _1000_
*1611 _1001_
*1612 _1002_
*1613 _1003_
*1614 _1004_
*1615 _1005_
*1616 _1006_
*1617 _1007_
*1618 _1008_
*1619 _1009_
*1620 _1010_
*1621 _1011_
*1622 _1012_
*1623 _1013_
*1624 _1014_
*1625 _1015_
*1626 _1016_
*1627 _1017_
*1628 _1018_
*1629 _1019_
*1630 _1020_
*1631 _1021_
*1632 _1022_
*1633 _1023_
*1634 _1024_
*1635 _1025_
*1636 _1026_
*1637 _1027_
*1638 _1028_
*1639 _1029_
*1640 _1030_
*1641 _1031_
*1642 _1032_
*1643 _1033_
*1644 _1034_
*1645 _1035_
*1646 _1036_
*1647 _1037_
*1648 _1038_
*1649 _1039_
*1650 _1040_
*1651 _1041_
*1652 _1042_
*1653 _1043_
*1654 _1044_
*1655 _1045_
*1656 _1046_
*1657 _1047_
*1658 _1048_
*1659 _1049_
*1660 _1050_
*1661 _1051_
*1662 _1052_
*1663 _1053_
*1664 _1054_
*1665 _1055_
*1666 _1056_
*1667 _1057_
*1668 _1058_
*1669 _1059_
*1670 _1060_
*1671 _1061_
*1672 _1062_
*1673 _1063_
*1674 _1064_
*1675 _1065_
*1676 _1066_
*1677 _1067_
*1678 _1068_
*1679 _1069_
*1680 _1070_
*1681 _1071_
*1682 _1072_
*1683 _1073_
*1684 _1074_
*1685 _1075_
*1686 _1076_
*1687 _1077_
*1688 _1078_
*1689 _1079_
*1690 _1080_
*1691 _1081_
*1692 _1082_
*1693 _1083_
*1694 _1084_
*1695 _1085_
*1696 _1086_
*1697 _1087_
*1698 _1088_
*1699 _1089_
*1700 _1090_
*1701 _1091_
*1702 _1092_
*1703 _1093_
*1704 _1094_
*1705 _1095_
*1706 _1096_
*1707 _1097_
*1708 _1098_
*1709 _1099_
*1710 _1100_
*1711 _1101_
*1712 _1102_
*1713 _1103_
*1714 _1104_
*1715 _1105_
*1716 _1106_
*1717 _1107_
*1718 _1108_
*1719 _1109_
*1720 _1110_
*1721 _1111_
*1722 _1112_
*1723 _1113_
*1724 _1114_
*1725 _1115_
*1726 _1116_
*1727 _1117_
*1728 _1118_
*1729 _1119_
*1730 _1120_
*1731 _1121_
*1732 _1122_
*1733 _1123_
*1734 _1124_
*1735 _1125_
*1736 _1126_
*1737 _1127_
*1738 _1128_
*1739 _1129_
*1740 _1130_
*1741 _1131_
*1742 _1132_
*1743 _1133_
*1744 _1134_
*1745 _1135_
*1746 _1136_
*1747 _1137_
*1748 _1138_
*1749 _1139_
*1750 _1140_
*1751 _1141_
*1752 _1142_
*1753 _1143_
*1754 _1144_
*1755 _1145_
*1756 _1146_
*1757 _1147_
*1758 _1148_
*1759 _1149_
*1760 _1150_
*1761 _1151_
*1762 _1152_
*1763 _1153_
*1764 _1154_
*1765 _1155_
*1766 _1156_
*1767 _1157_
*1768 _1158_
*1769 _1159_
*1770 _1160_
*1771 _1161_
*1772 _1162_
*1773 _1163_
*1774 _1164_
*1775 _1165_
*1776 _1166_
*1777 _1167_
*1778 _1168_
*1779 _1169_
*1780 _1170_
*1781 _1171_
*1782 _1172_
*1783 _1173_
*1784 _1174_
*1785 _1175_
*1786 _1176_
*1787 _1177_
*1788 _1178_
*1789 _1179_
*1790 _1180_
*1791 _1181_
*1792 _1182_
*1793 _1183_
*1794 _1184_
*1795 _1185_
*1796 _1186_
*1797 _1187_
*1798 _1188_
*1799 _1189_
*1800 _1190_
*1801 _1191_
*1802 _1192_
*1803 _1193_
*1804 _1194_
*1805 _1195_
*1806 _1196_
*1807 _1197_
*1808 _1198_
*1809 _1199_
*1810 _1200_
*1811 _1201_
*1812 _1202_
*1813 _1203_
*1814 _1204_
*1815 _1205_
*1816 _1206_
*1817 _1207_
*1818 _1208_
*1819 _1209_
*1820 _1210_
*1821 _1211_
*1822 _1212_
*1823 _1213_
*1824 _1214_
*1825 _1215_
*1826 _1216_
*1827 _1217_
*1828 _1218_
*1829 _1219_
*1830 _1220_
*1831 _1221_
*1832 _1222_
*1833 _1223_
*1834 _1224_
*1835 _1225_
*1836 _1226_
*1837 _1227_
*1838 _1228_
*1839 _1229_
*1840 _1230_
*1841 _1231_
*1842 _1232_
*1843 _1233_
*1844 _1234_
*1845 _1235_
*1846 _1236_
*1847 _1237_
*1848 _1238_
*1849 _1239_
*1850 _1240_
*1851 _1241_
*1852 _1242_
*1853 _1243_
*1854 _1244_
*1855 _1245_
*1856 _1246_
*1857 _1247_
*1858 _1248_
*1859 _1249_
*1860 _1250_
*1861 _1251_
*1862 _1252_
*1863 _1253_
*1864 _1254_
*1865 _1255_
*1866 _1256_
*1867 _1257_
*1868 _1258_
*1869 _1259_
*1870 _1260_
*1871 _1261_
*1872 _1262_
*1873 _1263_
*1874 _1264_
*1875 _1265_
*1876 _1266_
*1877 _1267_
*1878 _1268_
*1879 _1269_
*1880 _1270_
*1881 _1271_
*1882 _1272_
*1883 _1273_
*1884 _1274_
*1885 _1275_
*1886 _1276_
*1887 _1277_
*1888 _1278_
*1889 _1279_
*1890 clknet_0_rng_chaos\.clk_i
*1891 clknet_1_0_0_rng_chaos\.clk_i
*1892 clknet_1_0_1_rng_chaos\.clk_i
*1893 clknet_1_1_0_rng_chaos\.clk_i
*1894 clknet_1_1_1_rng_chaos\.clk_i
*1895 clknet_2_0_0_rng_chaos\.clk_i
*1896 clknet_2_1_0_rng_chaos\.clk_i
*1897 clknet_2_2_0_rng_chaos\.clk_i
*1898 clknet_2_3_0_rng_chaos\.clk_i
*1899 clknet_3_0_0_rng_chaos\.clk_i
*1900 clknet_3_1_0_rng_chaos\.clk_i
*1901 clknet_3_2_0_rng_chaos\.clk_i
*1902 clknet_3_3_0_rng_chaos\.clk_i
*1903 clknet_3_4_0_rng_chaos\.clk_i
*1904 clknet_3_5_0_rng_chaos\.clk_i
*1905 clknet_3_6_0_rng_chaos\.clk_i
*1906 clknet_3_7_0_rng_chaos\.clk_i
*1907 net1
*1908 net10
*1909 net100
*1910 net1000
*1911 net1001
*1912 net1002
*1913 net1003
*1914 net1004
*1915 net1005
*1916 net1006
*1917 net1007
*1918 net1008
*1919 net1009
*1920 net101
*1921 net1010
*1922 net1011
*1923 net1012
*1924 net1013
*1925 net1014
*1926 net1015
*1927 net1016
*1928 net1017
*1929 net1018
*1930 net1019
*1931 net102
*1932 net1020
*1933 net1021
*1934 net1022
*1935 net1023
*1936 net1024
*1937 net1025
*1938 net1026
*1939 net1027
*1940 net1028
*1941 net1029
*1942 net103
*1943 net1030
*1944 net1031
*1945 net1032
*1946 net1033
*1947 net1034
*1948 net1035
*1949 net1036
*1950 net1037
*1951 net1038
*1952 net1039
*1953 net104
*1954 net1040
*1955 net1041
*1956 net1042
*1957 net1043
*1958 net1044
*1959 net1045
*1960 net1046
*1961 net1047
*1962 net1048
*1963 net1049
*1964 net105
*1965 net1050
*1966 net1051
*1967 net1052
*1968 net1053
*1969 net1054
*1970 net1055
*1971 net1056
*1972 net1057
*1973 net1058
*1974 net1059
*1975 net106
*1976 net1060
*1977 net1061
*1978 net1062
*1979 net1063
*1980 net1064
*1981 net1065
*1982 net1066
*1983 net1067
*1984 net1068
*1985 net107
*1986 net108
*1987 net109
*1988 net11
*1989 net110
*1990 net111
*1991 net112
*1992 net113
*1993 net114
*1994 net115
*1995 net116
*1996 net117
*1997 net118
*1998 net119
*1999 net12
*2000 net120
*2001 net121
*2002 net122
*2003 net123
*2004 net124
*2005 net125
*2006 net126
*2007 net127
*2008 net128
*2009 net129
*2010 net13
*2011 net130
*2012 net131
*2013 net132
*2014 net133
*2015 net134
*2016 net135
*2017 net136
*2018 net137
*2019 net138
*2020 net139
*2021 net14
*2022 net140
*2023 net141
*2024 net142
*2025 net143
*2026 net144
*2027 net145
*2028 net146
*2029 net147
*2030 net148
*2031 net149
*2032 net15
*2033 net150
*2034 net151
*2035 net152
*2036 net153
*2037 net154
*2038 net155
*2039 net156
*2040 net157
*2041 net158
*2042 net159
*2043 net16
*2044 net160
*2045 net161
*2046 net162
*2047 net163
*2048 net164
*2049 net165
*2050 net166
*2051 net167
*2052 net168
*2053 net169
*2054 net17
*2055 net170
*2056 net171
*2057 net172
*2058 net173
*2059 net174
*2060 net175
*2061 net176
*2062 net177
*2063 net178
*2064 net179
*2065 net18
*2066 net180
*2067 net181
*2068 net182
*2069 net183
*2070 net184
*2071 net185
*2072 net186
*2073 net187
*2074 net188
*2075 net189
*2076 net19
*2077 net190